LTspice 24.1.9 for Windows
Circuit: C:\Users\spenc\Documents\LTspice\Draft1.net
Start Time: Sun Jun  1 19:07:35 2025
solver = Normal
Maximum thread count: 16
tnom = 27
temp = 27
method = trap
Direct Newton iteration for .op point succeeded.

Simulation stopped by user.
Total elapsed time: 1.886 seconds.

Files loaded:
C:\Users\spenc\Documents\LTspice\Draft1.net
C:\Users\spenc\AppData\Local\LTspice\lib\cmp\standard.dio
C:\Users\spenc\AppData\Local\LTspice\lib\cmp\standard.bjt
C:\Users\spenc\AppData\Local\LTspice\lib\sub\NE555.sub
C:\Users\spenc\AppData\Local\LTspice\lib\sub\UniversalOpAmp2.lib

